Circuit: * C:\Users\Lucas\Documents\Actualmente Usando\Teoría de Circuitos\TP2\EJ4\Simulaciones\Integrador\Integrador_compensado.asc

Direct Newton iteration for .op point succeeded.

Date: Wed Aug 21 12:59:51 2019
Total elapsed time: 0.094 seconds.

tnom = 27
temp = 27
method = trap
totiter = 19
traniter = 0
tranpoints = 0
accept = 0
rejected = 0
matrix size = 62
fillins = 39
solver = Normal
Matrix Compiler1:     226 opcodes
Matrix Compiler2: 5.43 KB object code size
