Circuit: * C:\Users\Lucas\Documents\Actualmente Usando\Teoría de Circuitos\TP2\EJ4\Simulaciones\Integrador\Draft1.asc

Direct Newton iteration for .op point succeeded.

Date: Thu Aug 22 14:50:43 2019
Total elapsed time: 0.223 seconds.

tnom = 27
temp = 27
method = modified trap
totiter = 1109
traniter = 1091
tranpoints = 530
accept = 362
rejected = 168
matrix size = 44
fillins = 18
solver = Normal
Matrix Compiler1: 2.29 KB object code size  0.7/0.4/[0.2]
Matrix Compiler2: off  [0.3]/0.6/0.5

