Circuit: * NE5534 OPERATIONAL AMPLIFIER "MACROMODEL" SUBCIRCUIT

Fatal Error: No analysis request found.
