Circuit: * C:\Users\Carlos\Desktop\ITBA\3er año\1er cuatri\TC\TP2\Informe\TP2\EJ5\Simulaciones\AmplifyingStage.asc

Direct Newton iteration for .op point succeeded.

Date: Sat Aug 31 13:13:57 2019
Total elapsed time: 19.586 seconds.

tnom = 27
temp = 27
method = modified trap
totiter = 3463277
traniter = 3463255
tranpoints = 1349340
accept = 1206670
rejected = 142670
matrix size = 44
fillins = 24
solver = Normal
Matrix Compiler1: 2.41 KB object code size  0.5/0.3/[0.1]
Matrix Compiler2: off  [0.3]/0.4/0.3

