Circuit: * C:\Users\Carlos\Desktop\ITBA\3er año\1er cuatri\TC\TP2\Informe\TP2\EJ5\Simulaciones\Draft4.asc

Direct Newton iteration for .op point succeeded.

Date: Sat Aug 31 13:41:55 2019
Total elapsed time: 0.143 seconds.

tnom = 27
temp = 27
method = trap
totiter = 3
traniter = 0
tranpoints = 0
accept = 0
rejected = 0
matrix size = 3
fillins = 0
solver = Normal
Matrix Compiler1: 50 bytes object code size
Matrix Compiler2: 175 bytes object code size
