Circuit: * C:\Users\Carlos\Desktop\ITBA\3er año\1er cuatri\TC\TP2\Informe\TP2\EJ5\Simulaciones\Draft1.asc

Direct Newton iteration for .op point succeeded.

Date: Thu Sep 05 19:30:58 2019
Total elapsed time: 0.168 seconds.

tnom = 27
temp = 27
method = trap
totiter = 3
traniter = 0
tranpoints = 0
accept = 0
rejected = 0
matrix size = 6
fillins = 0
solver = Normal
Matrix Compiler1: 164 bytes object code size
Matrix Compiler2: 374 bytes object code size
