Circuit: * C:\Users\Lucas\Documents\Actualmente Usando\Teoría de Circuitos\TP2\EJ4\Derivador\Simulaciones\Derivador con montecarlo.asc

Direct Newton iteration for .op point succeeded.
.step 1=1
.step 1=5.9
.step 1=10.8
.step 1=15.7
.step 1=20.6
.step 1=25.5
.step 1=30.4
.step 1=35.3
.step 1=40.2
.step 1=45.1
.step 1=50

Date: Sun Aug 25 22:50:09 2019
Total elapsed time: 0.608 seconds.

tnom = 27
temp = 27
method = trap
totiter = 18
traniter = 0
tranpoints = 0
accept = 0
rejected = 0
matrix size = 62
fillins = 39
solver = Normal
Matrix Compiler1:     227 opcodes
Matrix Compiler2: 5.42 KB object code size
