Circuit: * C:\Users\Lucas\Documents\Actualmente Usando\Teoría de Circuitos\TP2\EJ4\Derivador\Simulaciones\Derivador compensado.asc

Direct Newton iteration for .op point succeeded.

Date: Wed Aug 28 14:35:59 2019
Total elapsed time: 0.096 seconds.

tnom = 27
temp = 27
method = trap
totiter = 18
traniter = 0
tranpoints = 0
accept = 0
rejected = 0
matrix size = 63
fillins = 39
solver = Normal
Matrix Compiler1:     230 opcodes
Matrix Compiler2: 5.50 KB object code size
