Circuit: * C:\Users\Lucas\Documents\Actualmente Usando\Teoría de Circuitos\TP2\EJ4\Derivador\Simulaciones\Derivador compensado con montecarlo.asc

Direct Newton iteration failed to find .op point.  (Use ".option noopiter" to skip.)
Starting Gmin stepping
Gmin = 10
vernier = 0.5
Gmin = 2.55711
vernier = 0.666667
vernier = 0.333333
vernier = 0.166667
Gmin = 1.42064
vernier = 0.0833333
vernier = 0.111111
vernier = 0.0555555
Gmin = 1.23022
vernier = 0.0277778
vernier = 0.037037
Gmin = 1.14543
vernier = 0.0185185
vernier = 0.0246913
vernier = 0.0123457
Gmin = 1.12271
vernier = 0.0164609
vernier = 0.00823044
Gmin = 1.09649
vernier = 0.0109739
vernier = 0.00548696
Gmin = 1.08009
vernier = 0.00731595
vernier = 0.00365797
Gmin = 1.06782
vernier = 0.0048773
vernier = 0.00243865
Gmin = 1.05875
vernier = 0.00325153
Gmin = 1.05104
vernier = 0.00433537
vernier = 0.00216769
vernier = 0.00289025
vernier = 0.00144512
Gmin = 1.04782
vernier = 0.00192683
Gmin = 1.04328
vernier = 0.00256911
vernier = 0.00128455
vernier = 0.00171274
Gmin = 1.04027
vernier = 0.00228365
vernier = 0.00114182
Gmin = 1.03716
vernier = 0.00152243
vernier = 0.00202991
vernier = 0.00101495
Gmin = 1.03424
vernier = 0.00135327
Gmin = 1.03109
vernier = 0.00180436
vernier = 0.000902182
vernier = 0.00120291
Gmin = 1.029
vernier = 0.00160388
vernier = 0.000801939
Gmin = 1.02705
vernier = 0.00106925
vernier = 0.000534626
Gmin = 1.02554
vernier = 0.000712834
vernier = 0.000950445
vernier = 0.000475223
Gmin = 1.0242
vernier = 0.00063363
vernier = 0.00084484
Gmin = 1.02264
vernier = 0.00042242
vernier = 0.000563226
Gmin = 1.02174
vernier = 0.000750968
vernier = 0.000563226
vernier = 0.000750968
Gmin = 1.02055
vernier = 0.000563226
vernier = 0.000750968
vernier = 0.000563226
Gmin = 1.01973
vernier = 0.000750968
vernier = 0.000563226
vernier = 0.000422419
Gmin = 1.01887
vernier = 0.000563226
vernier = 0.000422419
Gmin = 1.01801
vernier = 0.000563226
vernier = 0.000422419
vernier = 0.000563225
Gmin = 1.01712
vernier = 0.000422419
vernier = 0.000563225
vernier = 0.000422419
Gmin = 1.01651
Gmin = 0
Gmin stepping failed

Starting source stepping with srcstepmethod=0
Source Step = 3.0303%
Source Step = 33.3333%
Source Step = 63.6364%
Source Step = 93.9394%
Source stepping succeeded in finding the operating point.

.step 1=1
.step 1=5.9
.step 1=10.8
.step 1=15.7
.step 1=20.6
.step 1=25.5
.step 1=30.4
.step 1=35.3
.step 1=40.2
.step 1=45.1
.step 1=50

Date: Mon Sep 02 10:10:15 2019
Total elapsed time: 6.118 seconds.

tnom = 27
temp = 27
method = trap
totiter = 20016
traniter = 0
tranpoints = 0
accept = 0
rejected = 0
matrix size = 66
fillins = 67
solver = Normal
Matrix Compiler1:     288 opcodes
Matrix Compiler2: off  [0.6]/0.9/0.7

