Circuit: * C:\Users\Lucas\Documents\Actualmente Usando\Teoría de Circuitos\TP2\EJ4\Derivador\Simulaciones\Derivador.asc

Direct Newton iteration for .op point succeeded.

Date: Sun Sep 01 11:49:05 2019
Total elapsed time: 0.079 seconds.

tnom = 27
temp = 27
method = trap
totiter = 18
traniter = 0
tranpoints = 0
accept = 0
rejected = 0
matrix size = 61
fillins = 39
solver = Normal
Matrix Compiler1:     227 opcodes
Matrix Compiler2: 5.37 KB object code size
