Circuit: * C:\Users\Lucas\Documents\Actualmente Usando\Teoría de Circuitos\TP2\EJ4\Derivador\Simulaciones\Derivador.asc

Direct Newton iteration failed to find .op point.  (Use ".option noopiter" to skip.)
Starting Gmin stepping
Gmin = 10
vernier = 0.5
Gmin = 2.55711
vernier = 0.666667
vernier = 0.333333
vernier = 0.166667
Gmin = 1.47108
vernier = 0.0833333
vernier = 0.111111
vernier = 0.0555555
Gmin = 1.27389
vernier = 0.0277778
Gmin = 1.1726
vernier = 0.037037
vernier = 0.0185185
vernier = 0.0246913
vernier = 0.0123457
Gmin = 1.13793
vernier = 0.0164609
vernier = 0.00823044
Gmin = 1.11136
vernier = 0.0109739
vernier = 0.00548696
Gmin = 1.09099
vernier = 0.00731595
vernier = 0.00365797
Gmin = 1.07712
vernier = 0.0048773
Gmin = 1.0657
vernier = 0.00650306
vernier = 0.00325153
vernier = 0.00433537
vernier = 0.00216769
Gmin = 1.06008
vernier = 0.00289025
Gmin = 1.0534
vernier = 0.00385366
vernier = 0.00192683
vernier = 0.00256911
Gmin = 1.04876
vernier = 0.00128455
vernier = 0.00171274
Gmin = 1.04596
vernier = 0.00228365
vernier = 0.00114182
vernier = 0.00152243
Gmin = 1.04318
vernier = 0.00202991
vernier = 0.00101495
Gmin = 1.03961
vernier = 0.00135327
Gmin = 1.03654
vernier = 0.00180436
vernier = 0.000902182
vernier = 0.00120291
Gmin = 1.0344
vernier = 0.00160388
vernier = 0.000801939
Gmin = 1.03233
vernier = 0.00106925
vernier = 0.00142567
vernier = 0.000712834
Gmin = 1.03028
vernier = 0.000950445
Gmin = 1.02808
vernier = 0.00126726
vernier = 0.00063363
vernier = 0.00084484
Gmin = 1.02662
vernier = 0.00112645
vernier = 0.000563226
Gmin = 1.02525
vernier = 0.000750968
vernier = 0.00100129
vernier = 0.000500645
Gmin = 1.02384
vernier = 0.000667527
vernier = 0.000500645
Gmin = 1.0226
vernier = 0.000667527
vernier = 0.000500645
Gmin = 1.02157
vernier = 0.000667527
vernier = 0.000500645
vernier = 0.000667527
Gmin = 1.02051
vernier = 0.000500645
vernier = 0.000667526
vernier = 0.000500645
Gmin = 1.01979
Gmin = 0
Gmin stepping failed

Starting source stepping with srcstepmethod=0
Source Step = 3.0303%
Source Step = 33.3333%
Source Step = 63.6364%
Source Step = 93.9394%
Source stepping succeeded in finding the operating point.


Date: Wed Aug 28 10:46:27 2019
Total elapsed time: 0.283 seconds.

tnom = 27
temp = 27
method = trap
totiter = 19859
traniter = 0
tranpoints = 0
accept = 0
rejected = 0
matrix size = 62
fillins = 87
solver = Normal
Matrix Compiler1:     367 opcodes
Matrix Compiler2: off  [0.5]/0.8/0.7

