Circuit: * C:\Users\Joaco\Desktop\repos\TC\TP2\EJ1\simulacion_pcb\Circuito 1\Caso 3\ej1_circ1_caso3.asc

Number of points per decade reduced from 10000 to 8790.
Direct Newton iteration failed to find .op point.  (Use ".option noopiter" to skip.)
Starting Gmin stepping
Gmin = 10
Gmin = 1.07374
vernier = 0.5
vernier = 0.25
vernier = 0.125
vernier = 0.0625
vernier = 0.03125
Gmin = 1.32153
vernier = 0.0416667
Gmin = 1.20691
vernier = 0.0555555
vernier = 0.074074
Gmin = 1.0407
vernier = 0.037037
vernier = 0.0185185
vernier = 0.00925925
Gmin = 0.998573
vernier = 0.00462963
vernier = 0.00231481
vernier = 0.00115741
vernier = 0.000578703
vernier = 0.000434027
Gmin = 0
Gmin = 0
Gmin stepping failed

Starting source stepping with srcstepmethod=0
Source Step = 3.0303%
Source Step = 33.3333%
Source Step = 63.6364%
Source Step = 88.6364%
vernier = 0.0625
Source Step = 87.8995%
Source Step = 87.9291%
Source Step = 87.9587%
Source Step = 87.9883%
Source Step = 88.0179%
vernier = 0.00146484
Source Step = 88.0489%
Source Step = 88.0933%
Source Step = 88.1377%
Source Step = 88.1821%
Source Step = 88.2265%
Source Step = 88.2709%
vernier = 0.00219727
Source Step = 88.3375%
Source Step = 88.4041%
Source Step = 88.4706%
Source Step = 88.5372%
Source Step = 88.6038%
vernier = 0.0032959
Source Step = 88.7004%
Source Step = 88.8002%
Source Step = 88.9001%
Source Step = 89%
Source Step = 89.0999%
vernier = 0.00494385
Source Step = 89.2397%
Source Step = 89.3895%
Source Step = 89.5393%
Source Step = 89.6891%
Source Step = 89.8389%
vernier = 0.00741577
Source Step = 90.0412%
Source Step = 90.2659%
Source Step = 90.4906%
Source Step = 90.7154%
Source Step = 90.9401%
vernier = 0.0111237
Source Step = 91.2322%
Source Step = 91.5693%
Source Step = 91.9064%
Source Step = 92.2434%
Source Step = 92.5805%
vernier = 0.0166855
Source Step = 93.0019%
Source Step = 93.5075%
Source Step = 94.0131%
Source Step = 94.5187%
Source Step = 95.0244%
vernier = 0.0250282
Source Step = 95.6311%
Source Step = 96.3895%
Source Step = 97.148%
Source Step = 97.9064%
Source Step = 98.6648%
vernier = 0.0375423
Source Step = 99.537%
Source stepping succeeded in finding the operating point.


Date: Mon Sep 02 00:27:32 2019
Total elapsed time: 1.347 seconds.

tnom = 27
temp = 27
method = trap
totiter = 4910
traniter = 0
tranpoints = 0
accept = 0
rejected = 0
matrix size = 139
fillins = 334
solver = Normal
Matrix Compiler1:    1211 opcodes
Matrix Compiler2: 17.31 KB object code size  1.2/2.4/[0.8]

