Circuit: * G:\Mi unidad\2019Q2_Grado_5C\Teoria de Circuitos\TP2\Ejercicio 1\Circuito 1\Caso 1\ej1_circ1_caso1.asc

V3: Missing value, assumed 0V @ DC
Direct Newton iteration failed to find .op point.  (Use ".option noopiter" to skip.)
Starting Gmin stepping
Gmin = 10
Gmin = 1.07374
vernier = 0.5
vernier = 0.25
vernier = 0.125
vernier = 0.0625
vernier = 0.03125
Gmin = 1.32153
vernier = 0.0416667
Gmin = 1.20691
vernier = 0.0555555
vernier = 0.074074
Gmin = 1.0407
vernier = 0.037037
vernier = 0.0185185
vernier = 0.00925925
Gmin = 0.998573
vernier = 0.00462963
vernier = 0.00231481
vernier = 0.00115741
vernier = 0.000578703
vernier = 0.000434027
Gmin = 0
Gmin = 0
Gmin stepping failed

Starting source stepping with srcstepmethod=0
Source Step = 3.0303%
Source Step = 33.3333%
Source Step = 63.6364%
Source Step = 88.6364%
vernier = 0.0625
Source Step = 87.8995%
Starting source stepping with srcstepmethod=1
Source Step = 3.0303%
Source Step = 33.3333%
Source Step = 63.6364%
Source Step = 88.6364%
vernier = 0.0625
Source stepping failed

Pseudo Transient succeeded in finding the operating point at 299.137 ms.
Early termination of direct N-R iteration.
Direct Newton iteration failed to find .op point.  (Use ".option noopiter" to skip.)
Starting Gmin stepping
Gmin = 10
vernier = 0.5
Gmin = 2.3014
vernier = 0.666667
vernier = 0.333333
vernier = 0.166667
vernier = 0.0833333
Gmin = 1.33596
vernier = 0.111111
Gmin = 1.05081
vernier = 0.148148
vernier = 0.074074
vernier = 0.037037
vernier = 0.0185185
vernier = 0.00925925
Gmin = 1.00382
vernier = 0.00462963
vernier = 0.00231481
vernier = 0.00115741
Gmin = 0.999764
vernier = 0.000578703
vernier = 0.000434027
Gmin = 0
Gmin stepping failed

Starting source stepping with srcstepmethod=0
Source Step = 3.0303%
Source Step = 33.3333%
Source Step = 63.6364%
Source Step = 88.6364%
vernier = 0.0625
Source Step = 87.8995%
Source Step = 87.9291%
Source Step = 87.9587%
Source Step = 87.9883%
Source Step = 88.0179%
vernier = 0.00146484
Source Step = 88.0489%
Source Step = 88.0933%
Source Step = 88.1377%
Source Step = 88.1821%
Source Step = 88.2265%
Source Step = 88.2709%
vernier = 0.00219727
Source Step = 88.3375%
Source Step = 88.4041%
Source Step = 88.4706%
Source Step = 88.5372%
Source Step = 88.6038%
vernier = 0.0032959
Source Step = 88.7004%
Source Step = 88.8002%
Source Step = 88.9001%
Source Step = 89%
Source Step = 89.0999%
vernier = 0.00494385
Source Step = 89.2397%
Source Step = 89.3895%
Source Step = 89.5393%
Source Step = 89.6891%
Source Step = 89.8389%
vernier = 0.00741577
Source Step = 90.0412%
Source Step = 90.1086%
Source Step = 90.1648%
Source Step = 90.221%
Source Step = 90.2771%
Source Step = 90.3333%
Source Step = 90.3895%
Source Step = 90.4457%
Source Step = 90.5019%
Source Step = 90.558%
vernier = 0.00278091
Source Step = 90.6339%
Source Step = 90.7182%
Source Step = 90.8024%
Source Step = 90.8867%
Source Step = 90.971%
vernier = 0.00417137
Source Step = 91.0805%
Source Step = 91.2069%
Source Step = 91.3333%
Source Step = 91.4597%
Source Step = 91.5861%
vernier = 0.00625706
Source Step = 91.7441%
Source Step = 91.9338%
Source Step = 92.1234%
Source Step = 92.313%
Source Step = 92.5026%
vernier = 0.00938559
Source Step = 92.7301%
Source Step = 93.0145%
Source Step = 93.2989%
Source Step = 93.5833%
Source Step = 93.8678%
vernier = 0.0140784
Source Step = 94.1948%
Source Step = 94.6214%
Source Step = 95.0481%
Source Step = 95.4747%
Source Step = 95.9013%
vernier = 0.0211176
Source Step = 96.3706%
Source Step = 97.0105%
Source Step = 97.6504%
Source Step = 98.2904%
Source Step = 98.9303%
vernier = 0.0316764
Source Step = 99.6022%
Source stepping succeeded in finding the operating point.

Early termination of direct N-R iteration.
Direct Newton iteration failed to find .op point.  (Use ".option noopiter" to skip.)
Starting Gmin stepping
Gmin = 10
vernier = 0.5
Gmin = 2.3014
vernier = 0.666667
vernier = 0.333333
vernier = 0.166667
vernier = 0.0833333
Gmin = 1.33596
vernier = 0.111111
Gmin = 1.05081
vernier = 0.148148
vernier = 0.074074
vernier = 0.037037
vernier = 0.0185185
vernier = 0.00925925
Gmin = 1.00382
vernier = 0.00462963
vernier = 0.00231481
vernier = 0.00115741
Gmin = 0.999764
vernier = 0.000578703
vernier = 0.000434027
Gmin = 0
Gmin stepping failed

Starting source stepping with srcstepmethod=0
Source Step = 3.0303%
Source Step = 33.3333%
Source Step = 63.6364%
Source Step = 88.6364%
vernier = 0.0625
Source Step = 87.8995%
Source Step = 87.9291%
Source Step = 87.9587%
Source Step = 87.9883%
Source Step = 88.0179%
vernier = 0.00146484
Source Step = 88.0489%
Source Step = 88.0933%
Source Step = 88.1377%
Source Step = 88.1821%
Source Step = 88.2265%
Source Step = 88.2709%
vernier = 0.00219727
Source Step = 88.3375%
Source Step = 88.4041%
Source Step = 88.4706%
Source Step = 88.5372%
Source Step = 88.6038%
vernier = 0.0032959
Source Step = 88.7004%
Source Step = 88.8002%
Source Step = 88.9001%
Source Step = 89%
Source Step = 89.0999%
vernier = 0.00494385
Source Step = 89.2397%
Source Step = 89.3895%
Source Step = 89.5393%
Source Step = 89.6891%
Source Step = 89.8389%
vernier = 0.00741577
Source Step = 90.0412%
Source Step = 90.1086%
Source Step = 90.1648%
Source Step = 90.221%
Source Step = 90.2771%
Source Step = 90.3333%
Source Step = 90.3895%
Source Step = 90.4457%
Source Step = 90.5019%
Source Step = 90.558%
vernier = 0.00278091
Source Step = 90.6339%
Source Step = 90.7182%
Source Step = 90.8024%
Source Step = 90.8867%
Source Step = 90.971%
vernier = 0.00417137
Source Step = 91.0805%
Source Step = 91.2069%
Source Step = 91.3333%
Source Step = 91.4597%
Source Step = 91.5861%
vernier = 0.00625706
Source Step = 91.7441%
Source Step = 91.9338%
Source Step = 92.1234%
Source Step = 92.313%
Source Step = 92.5026%
vernier = 0.00938559
Source Step = 92.7301%
Source Step = 93.0145%
Source Step = 93.2989%
Source Step = 93.5833%
Source Step = 93.8678%
vernier = 0.0140784
Source Step = 94.1948%
Source Step = 94.6214%
Source Step = 95.0481%
Source Step = 95.4747%
Source Step = 95.9013%
vernier = 0.0211176
Source Step = 96.3706%
Source Step = 97.0105%
Source Step = 97.6504%
Source Step = 98.2904%
Source Step = 98.9303%
vernier = 0.0316764
Source Step = 99.6022%
Source stepping succeeded in finding the operating point.

Early termination of direct N-R iteration.
Direct Newton iteration failed to find .op point.  (Use ".option noopiter" to skip.)
Starting Gmin stepping
Gmin = 10
vernier = 0.5
Gmin = 2.3014
vernier = 0.666667
vernier = 0.333333
vernier = 0.166667
vernier = 0.0833333
Gmin = 1.33596
vernier = 0.111111
Gmin = 1.05081
vernier = 0.148148
vernier = 0.074074
vernier = 0.037037
vernier = 0.0185185
vernier = 0.00925925
Gmin = 1.00382
vernier = 0.00462963
vernier = 0.00231481
vernier = 0.00115741
Gmin = 0.999764
vernier = 0.000578703
vernier = 0.000434027
Gmin = 0
Gmin stepping failed

Starting source stepping with srcstepmethod=0
Source Step = 3.0303%
Source Step = 33.3333%
Source Step = 63.6364%
Source Step = 88.6364%
vernier = 0.0625
Source Step = 87.8995%
Source Step = 87.9291%
Source Step = 87.9587%
Source Step = 87.9883%
Source Step = 88.0179%
vernier = 0.00146484
Source Step = 88.0489%
Source Step = 88.0933%
Source Step = 88.1377%
Source Step = 88.1821%
Source Step = 88.2265%
Source Step = 88.2709%
vernier = 0.00219727
Source Step = 88.3375%
Source Step = 88.4041%
Source Step = 88.4706%
Source Step = 88.5372%
Source Step = 88.6038%
vernier = 0.0032959
Source Step = 88.7004%
Source Step = 88.8002%
Source Step = 88.9001%
Source Step = 89%
Source Step = 89.0999%
vernier = 0.00494385
Source Step = 89.2397%
Source Step = 89.3895%
Source Step = 89.5393%
Source Step = 89.6891%
Source Step = 89.8389%
vernier = 0.00741577
Source Step = 90.0412%
Source Step = 90.1086%
Source Step = 90.1648%
Source Step = 90.221%
Source Step = 90.2771%
Source Step = 90.3333%
Source Step = 90.3895%
Source Step = 90.4457%
Source Step = 90.5019%
Source Step = 90.558%
vernier = 0.00278091
Source Step = 90.6339%
Source Step = 90.7182%
Source Step = 90.8024%
Source Step = 90.8867%
Source Step = 90.971%
vernier = 0.00417137
Source Step = 91.0805%
Source Step = 91.2069%
Source Step = 91.3333%
Source Step = 91.4597%
Source Step = 91.5861%
vernier = 0.00625706
Source Step = 91.7441%
Source Step = 91.9338%
Source Step = 92.1234%
Source Step = 92.313%
Source Step = 92.5026%
vernier = 0.00938559
Source Step = 92.7301%
Source Step = 93.0145%
Source Step = 93.2989%
Source Step = 93.5833%
Source Step = 93.8678%
vernier = 0.0140784
Source Step = 94.1948%
Source Step = 94.6214%
Source Step = 95.0481%
Source Step = 95.4747%
Source Step = 95.9013%
vernier = 0.0211176
Source Step = 96.3706%
Source Step = 97.0105%
Source Step = 97.6504%
Source Step = 98.2904%
Source Step = 98.9303%
vernier = 0.0316764
Source Step = 99.6022%
Source stepping succeeded in finding the operating point.

Early termination of direct N-R iteration.
Direct Newton iteration failed to find .op point.  (Use ".option noopiter" to skip.)
Starting Gmin stepping
Gmin = 10
vernier = 0.5
Gmin = 2.3014
vernier = 0.666667
vernier = 0.333333
vernier = 0.166667
vernier = 0.0833333
Gmin = 1.33596
vernier = 0.111111
Gmin = 1.05081
vernier = 0.148148
vernier = 0.074074
vernier = 0.037037
vernier = 0.0185185
vernier = 0.00925925
Gmin = 1.00382
vernier = 0.00462963
vernier = 0.00231481
vernier = 0.00115741
Gmin = 0.999764
vernier = 0.000578703
vernier = 0.000434027
Gmin = 0
Gmin stepping failed

Starting source stepping with srcstepmethod=0
Source Step = 3.0303%
Source Step = 33.3333%
Source Step = 63.6364%
Source Step = 88.6364%
vernier = 0.0625
Source Step = 87.8995%
Source Step = 87.9291%
Source Step = 87.9587%
Source Step = 87.9883%
Source Step = 88.0179%
vernier = 0.00146484
Source Step = 88.0489%
Source Step = 88.0933%
Source Step = 88.1377%
Source Step = 88.1821%
Source Step = 88.2265%
Source Step = 88.2709%
vernier = 0.00219727
Source Step = 88.3375%
Source Step = 88.4041%
Source Step = 88.4706%
Source Step = 88.5372%
Source Step = 88.6038%
vernier = 0.0032959
Source Step = 88.7004%
Source Step = 88.8002%
Source Step = 88.9001%
Source Step = 89%
Source Step = 89.0999%
vernier = 0.00494385
Source Step = 89.2397%
Source Step = 89.3895%
Source Step = 89.5393%
Source Step = 89.6891%
Source Step = 89.8389%
vernier = 0.00741577
Source Step = 90.0412%
Source Step = 90.1086%
Source Step = 90.1648%
Source Step = 90.221%
Source Step = 90.2771%
Source Step = 90.3333%
Source Step = 90.3895%
Source Step = 90.4457%
Source Step = 90.5019%
Source Step = 90.558%
vernier = 0.00278091
Source Step = 90.6339%
Source Step = 90.7182%
Source Step = 90.8024%
Source Step = 90.8867%
Source Step = 90.971%
vernier = 0.00417137
Source Step = 91.0805%
Source Step = 91.2069%
Source Step = 91.3333%
Source Step = 91.4597%
Source Step = 91.5861%
vernier = 0.00625706
Source Step = 91.7441%
Source Step = 91.9338%
Source Step = 92.1234%
Source Step = 92.313%
Source Step = 92.5026%
vernier = 0.00938559
Source Step = 92.7301%
Source Step = 93.0145%
Source Step = 93.2989%
Source Step = 93.5833%
Source Step = 93.8678%
vernier = 0.0140784
Source Step = 94.1948%
Source Step = 94.6214%
Source Step = 95.0481%
Source Step = 95.4747%
Source Step = 95.9013%
vernier = 0.0211176
Source Step = 96.3706%
Source Step = 97.0105%
Source Step = 97.6504%
Source Step = 98.2904%
Source Step = 98.9303%
vernier = 0.0316764
Source Step = 99.6022%
Source stepping succeeded in finding the operating point.

Early termination of direct N-R iteration.
Direct Newton iteration failed to find .op point.  (Use ".option noopiter" to skip.)
Starting Gmin stepping
Gmin = 10
vernier = 0.5
Gmin = 2.3014
vernier = 0.666667
vernier = 0.333333
vernier = 0.166667
vernier = 0.0833333
Gmin = 1.33596
vernier = 0.111111
Gmin = 1.05081
vernier = 0.148148
vernier = 0.074074
vernier = 0.037037
vernier = 0.0185185
vernier = 0.00925925
Gmin = 1.00382
vernier = 0.00462963
vernier = 0.00231481
vernier = 0.00115741
Gmin = 0.999764
vernier = 0.000578703
vernier = 0.000434027
Gmin = 0
Gmin stepping failed

Starting source stepping with srcstepmethod=0
Source Step = 3.0303%
Source Step = 33.3333%
Source Step = 63.6364%
Source Step = 88.6364%
vernier = 0.0625
Source Step = 87.8995%
Source Step = 87.9291%
Source Step = 87.9587%
Source Step = 87.9883%
Source Step = 88.0179%
vernier = 0.00146484
Source Step = 88.0489%
Source Step = 88.0933%
Source Step = 88.1377%
Source Step = 88.1821%
Source Step = 88.2265%
Source Step = 88.2709%
vernier = 0.00219727
Source Step = 88.3375%
Source Step = 88.4041%
Source Step = 88.4706%
Source Step = 88.5372%
Source Step = 88.6038%
vernier = 0.0032959
Source Step = 88.7004%
Source Step = 88.8002%
Source Step = 88.9001%
Source Step = 89%
Source Step = 89.0999%
vernier = 0.00494385
Source Step = 89.2397%
Source Step = 89.3895%
Source Step = 89.5393%
Source Step = 89.6891%
Source Step = 89.8389%
vernier = 0.00741577
Source Step = 90.0412%
Source Step = 90.1086%
Source Step = 90.1648%
Source Step = 90.221%
Source Step = 90.2771%
Source Step = 90.3333%
Source Step = 90.3895%
Source Step = 90.4457%
Source Step = 90.5019%
Source Step = 90.558%
vernier = 0.00278091
Source Step = 90.6339%
Source Step = 90.7182%
Source Step = 90.8024%
Source Step = 90.8867%
Source Step = 90.971%
vernier = 0.00417137
Source Step = 91.0805%
Source Step = 91.2069%
Source Step = 91.3333%
Source Step = 91.4597%
Source Step = 91.5861%
vernier = 0.00625706
Source Step = 91.7441%
Source Step = 91.9338%
Source Step = 92.1234%
Source Step = 92.313%
Source Step = 92.5026%
vernier = 0.00938559
Source Step = 92.7301%
Source Step = 93.0145%
Source Step = 93.2989%
Source Step = 93.5833%
Source Step = 93.8678%
vernier = 0.0140784
Source Step = 94.1948%
Source Step = 94.6214%
Source Step = 95.0481%
Source Step = 95.4747%
Source Step = 95.9013%
vernier = 0.0211176
Source Step = 96.3706%
Source Step = 97.0105%
Source Step = 97.6504%
Source Step = 98.2904%
Source Step = 98.9303%
vernier = 0.0316764
Source Step = 99.6022%
Source stepping succeeded in finding the operating point.


Date: Sat Aug 24 17:55:36 2019
Total elapsed time: 8.006 seconds.

tnom = 27
temp = 27
method = trap
totiter = 51030
traniter = 0
tranpoints = 0
accept = 0
rejected = 41
matrix size = 142
fillins = 294
solver = Normal
Thread vector: 10.5/9.1[3] 0.0/0.0[3] 5.5/2.8[3] 0.5/1.4[1]  2592/500
Matrix Compiler1: 21.15 KB object code size  4.4/3.4/[0.7]
Matrix Compiler2: 16.71 KB object code size  3.8/4.5/[0.6]

