Circuit: * LM833

Fatal Error: No analysis request found.
