Circuit: * C:\Users\Joaco\Desktop\repos\TC\TP2\EJ6\Simulation\TC_TP2_EJ6_simulation.asc

V3: Missing value, assumed 0V @ DC

Date: Sun Sep 01 11:57:03 2019
Total elapsed time: 0.043 seconds.

tnom = 27
temp = 27
method = trap
totiter = 279
traniter = 0
tranpoints = 0
accept = 0
rejected = 0
matrix size = 53
fillins = 136
solver = Normal
Matrix Compiler1: 13.06 KB object code size  1.8/0.9/[0.5]
Matrix Compiler2: 6.82 KB object code size  0.5/0.7/[0.3]

