Circuit: * C:\Users\Joaco\Desktop\repos\TC\TP2\EJ6\Simulation\TC_TP2_EJ6_simulation.asc

V3: Missing value, assumed 0V @ DC

Date: Thu Sep 05 15:32:44 2019
Total elapsed time: 0.058 seconds.

tnom = 27
temp = 27
method = trap
totiter = 1054
traniter = 0
tranpoints = 0
accept = 0
rejected = 0
matrix size = 53
fillins = 104
solver = Normal
Matrix Compiler1: 8.26 KB object code size  2.7/0.6/[0.3]
Matrix Compiler2: 6.32 KB object code size  0.5/0.5/[0.3]

