Circuit: * C:\Users\facun\OneDrive\Desktop\ITBA\5C TC\TP2\TP2\EJ2\opamp LM833 TI.asc

ERROR: Node U2:I0:I21:1:102 is floating and connected to current source G:U2:I0:I21:1:RA
ERROR: Node U2:I0:I19:1:102 is floating and connected to current source G:U2:I0:I19:1:RA
ERROR: Node U2:I0:I19:1:302 is floating and connected to current source G:U2:I0:I19:1:RC

u2:vpd: Missing value, assumed 0V @ DC
u2:i0:vprobe2: Missing value, assumed 0V @ DC
u2:i0:vprobe1: Missing value, assumed 0V @ DC
Direct Newton iteration for .op point succeeded.

Date: Sat Aug 24 02:57:30 2019
Total elapsed time: 0.046 seconds.

tnom = 27
temp = 27
method = trap
totiter = 7
traniter = 0
tranpoints = 0
accept = 0
rejected = 0
matrix size = 180
fillins = 98
solver = Normal
Matrix Compiler1:     519 opcodes
Matrix Compiler2: 13.77 KB object code size
