Circuit: * C:\Users\facun\OneDrive\Desktop\ITBA\5C TC\TP2\TP2\EJ2\LTspice\opamp NE5534.asc

Direct Newton iteration for .op point succeeded.

Date: Mon Sep 02 18:44:27 2019
Total elapsed time: 0.031 seconds.

tnom = 27
temp = 27
method = trap
totiter = 10
traniter = 0
tranpoints = 0
accept = 0
rejected = 0
matrix size = 33
fillins = 44
solver = Normal
Matrix Compiler1:     216 opcodes
Matrix Compiler2: 3.42 KB object code size
