Circuit: * C:\Users\facun\OneDrive\Desktop\ITBA\5C TC\TP2\TP2\EJ2\LTspice\opamp LM833.asc

Direct Newton iteration failed to find .op point.  (Use ".option noopiter" to skip.)
Starting Gmin stepping
Gmin = 10
Gmin = 1.07374
Gmin = 0.115292
Gmin = 0.0123794
Gmin = 0.00132923
Gmin = 0.000142725
Gmin = 1.5325e-005
Gmin = 1.6455e-006
Gmin = 1.76685e-007
Gmin = 1.89714e-008
Gmin = 2.03704e-009
Gmin = 2.18725e-010
Gmin = 2.34854e-011
Gmin = 2.52173e-012
Gmin = 2.70769e-013
Gmin = 0
Gmin stepping succeeded in finding the operating point.

.step run=1
.step run=2
.step run=3
.step run=4
.step run=5
.step run=6
.step run=7
.step run=8
.step run=9
.step run=10
.step run=11
.step run=12
.step run=13
.step run=14
.step run=15
.step run=16
.step run=17
.step run=18

Date: Thu Aug 29 23:12:44 2019
Total elapsed time: 0.383 seconds.

tnom = 27
temp = 27
method = trap
totiter = 37
traniter = 0
tranpoints = 0
accept = 0
rejected = 0
matrix size = 63
fillins = 57
solver = Normal
Matrix Compiler1:     280 opcodes
Matrix Compiler2:     457 opcodes
