Circuit: * C:\Users\facun\OneDrive\Desktop\ITBA\5C TC\TP2\TP2\EJ2\LTspice\opamp NE5534 Zin.asc

Direct Newton iteration for .op point succeeded.
.step run=1
.step run=2
.step run=3
.step run=4
.step run=5
.step run=6
.step run=7
.step run=8
.step run=9
.step run=10
.step run=11
.step run=12
.step run=13
.step run=14
.step run=15
.step run=16
.step run=17
.step run=18

Date: Wed Sep 04 16:24:58 2019
Total elapsed time: 0.145 seconds.

tnom = 27
temp = 27
method = trap
totiter = 11
traniter = 0
tranpoints = 0
accept = 0
rejected = 0
matrix size = 32
fillins = 44
solver = Normal
Matrix Compiler1:     213 opcodes
Matrix Compiler2: 3.35 KB object code size
