Circuit: * C:\Users\facun\OneDrive\Desktop\ITBA\5C TC\TP2\TP2\EJ2\opamp NE5534.asc

Direct Newton iteration for .op point succeeded.

Date: Sun Aug 25 19:37:09 2019
Total elapsed time: 0.097 seconds.

tnom = 27
temp = 27
method = trap
totiter = 10
traniter = 0
tranpoints = 0
accept = 0
rejected = 0
matrix size = 32
fillins = 45
solver = Normal
Matrix Compiler1:     216 opcodes
Matrix Compiler2: 3.32 KB object code size
