Circuit: * C:\Users\facun\OneDrive\Desktop\ITBA\5C TC\TP2\TP2\EJ2\LTspice\opamp LM833 open loop.asc

Direct Newton iteration for .op point succeeded.

Date: Mon Aug 26 16:57:08 2019
Total elapsed time: 0.121 seconds.

tnom = 27
temp = 27
method = trap
totiter = 18
traniter = 0
tranpoints = 0
accept = 0
rejected = 0
matrix size = 61
fillins = 26
solver = Normal
Matrix Compiler1:     192 opcodes
Matrix Compiler2: 5.13 KB object code size
