Circuit: * C:\Users\facun\OneDrive\Desktop\ITBA\5C TC\TP2\TP2\EJ2\LTspice\opamp NE5534 open loop.asc

Direct Newton iteration for .op point succeeded.

Date: Sun Aug 25 18:23:12 2019
Total elapsed time: 0.031 seconds.

tnom = 27
temp = 27
method = trap
totiter = 10
traniter = 0
tranpoints = 0
accept = 0
rejected = 0
matrix size = 30
fillins = 37
solver = Normal
Matrix Compiler1:     163 opcodes
Matrix Compiler2: 2.98 KB object code size
