Circuit: * C:\Users\Lucas\Documents\Actualmente Usando\Teoría de Circuitos\TP2\EJ4\Simulaciones\Derivador\Derivador.asc

Direct Newton iteration for .op point succeeded.

Date: Wed Aug 21 02:21:29 2019
Total elapsed time: 0.105 seconds.

tnom = 27
temp = 27
method = trap
totiter = 18
traniter = 0
tranpoints = 0
accept = 0
rejected = 0
matrix size = 62
fillins = 39
solver = Normal
Matrix Compiler1:     227 opcodes
Matrix Compiler2: 5.42 KB object code size
