Circuit: * C:\Users\Lucas\Documents\Actualmente Usando\Teoría de Circuitos\TP2\EJ4\Integrador\Simulaciones\Draft1.asc

Direct Newton iteration for .op point succeeded.

Date: Fri Aug 30 12:40:37 2019
Total elapsed time: 0.079 seconds.

tnom = 27
temp = 27
method = modified trap
totiter = 4633
traniter = 4628
tranpoints = 1542
accept = 1100
rejected = 442
matrix size = 9
fillins = 0
solver = Normal
Matrix Compiler1: 386 bytes object code size  0.1/0.1/[0.1]
Matrix Compiler2: off  [0.1]/0.1/0.1

