Circuit: * C:\Users\Lucas\Documents\Actualmente Usando\Teoría de Circuitos\TP2\EJ4\Integrador\Simulaciones\Draft6.asc

Direct Newton iteration for .op point succeeded.

Date: Mon Sep 02 08:03:09 2019
Total elapsed time: 0.106 seconds.

tnom = 27
temp = 27
method = modified trap
totiter = 2043
traniter = 2040
tranpoints = 1021
accept = 1021
rejected = 0
matrix size = 5
fillins = 0
solver = Normal
Matrix Compiler1: 150 bytes object code size  0.1/0.1/[0.0]
Matrix Compiler2: 315 bytes object code size  0.1/0.2/[0.1]

