Circuit: * C:\Users\Lucas\Documents\Actualmente Usando\Teoría de Circuitos\TP2\EJ4\Integrador\Simulaciones\Integrador con montecarlo.asc

Direct Newton iteration for .op point succeeded.
.step 1=1
.step 1=5.9
.step 1=10.8
.step 1=15.7
.step 1=20.6
.step 1=25.5
.step 1=30.4
.step 1=35.3
.step 1=40.2
.step 1=45.1
.step 1=50

Date: Sun Aug 25 18:13:06 2019
Total elapsed time: 0.552 seconds.

tnom = 27
temp = 27
method = trap
totiter = 19
traniter = 0
tranpoints = 0
accept = 0
rejected = 0
matrix size = 62
fillins = 39
solver = Normal
Matrix Compiler1:     226 opcodes
Matrix Compiler2: 5.43 KB object code size
