Circuit: * C:\Users\Lucas\Documents\Actualmente Usando\Teoría de Circuitos\TP2\EJ4\Integrador\Simulaciones\Integrador.asc

Direct Newton iteration for .op point succeeded.
Heightened Def Con from 0.0665907 to 0.0665907

Date: Mon Sep 02 18:10:00 2019
Total elapsed time: 14.131 seconds.

tnom = 27
temp = 27
method = modified trap
totiter = 1331886
traniter = 1331867
tranpoints = 665938
accept = 665928
rejected = 11
matrix size = 62
fillins = 42
solver = Normal
Matrix Compiler1: 3.94 KB object code size  0.9/0.4/[0.2]
Matrix Compiler2: 5.47 KB object code size  0.5/0.7/[0.3]

