Circuit: * C:\Users\Lucas\Documents\Actualmente Usando\Teoría de Circuitos\TP2\EJ4\Integrador\Simulaciones\Integrador compensado.asc

Direct Newton iteration for .op point succeeded.

Date: Wed Aug 28 17:31:28 2019
Total elapsed time: 0.099 seconds.

tnom = 27
temp = 27
method = trap
totiter = 22
traniter = 0
tranpoints = 0
accept = 0
rejected = 0
matrix size = 62
fillins = 39
solver = Normal
Matrix Compiler1:     225 opcodes
Matrix Compiler2: 5.44 KB object code size
