Circuit: * C:\Users\Carlos\Desktop\ITBA\3er año\1er cuatri\TC\TP2\Informe\TP2\EJ5\DCOffsetInputFilter.asc

Direct Newton iteration for .op point succeeded.

Date: Sat Aug 31 12:58:17 2019
Total elapsed time: 4.047 seconds.

tnom = 27
temp = 27
method = modified trap
totiter = 1000049
traniter = 1000046
tranpoints = 500024
accept = 500024
rejected = 0
matrix size = 5
fillins = 0
solver = Normal
Matrix Compiler1: 132 bytes object code size  0.0/0.0/[0.0]
Matrix Compiler2: off  [0.0]/0.0/0.1

